FoamFile
{
    format      ascii;
    class       volScalarField;
    object      omega;
}

dimensions      [0 0 -1 0 0 0 0];

internalField   uniform 20.412414523193153;

boundaryField
{
    freestream
    {
        type       inletOutlet;
        inletValue $internalField;
        value      $internalField;
    }

    "aircraft.*"
    {
        type  omegaWallFunction;
        value $internalField;
    }

    "proc.*"
    {
        type processor;
    }
}
